$ Generated football-style mesh
$ Vertices: 162, Faces: 320
GRID     1
GRID*           1        0      0.00000000     52.57311121
*            85.06508084
GRID*           2        0      0.00000000    -52.57311121
*            85.06508084
GRID*           3        0     52.57311121     85.06508084
*             0.00000000
GRID*           4        0    -52.57311121     85.06508084
*             0.00000000
GRID*           5        0     85.06508084      0.00000000
*            52.57311121
GRID*           6        0    -85.06508084      0.00000000
*            52.57311121
GRID*           7        0     -0.00000000    -52.57311121
*           -85.06508084
GRID*           8        0     -0.00000000     52.57311121
*           -85.06508084
GRID*           9        0    -52.57311121    -85.06508084
*            -0.00000000
GRID*          10        0     52.57311121    -85.06508084
*            -0.00000000
GRID*          11        0    -85.06508084     -0.00000000
*           -52.57311121
GRID*          12        0     85.06508084     -0.00000000
*           -52.57311121
GRID*          13        0      0.00000000     29.52418088
*            95.54225632
GRID*          14        0      0.00000000      0.00000000
*           100.00000000
GRID*          15        0      0.00000000    -29.52418088
*            95.54225632
GRID*          16        0     14.76209044     68.17183541
*            71.65669224
GRID*          17        0     30.90169944     80.90169944
*            50.00000000
GRID*          18        0     44.28627133     86.41878268
*            23.88556408
GRID*          19        0    -14.76209044     68.17183541
*            71.65669224
GRID*          20        0    -30.90169944     80.90169944
*            50.00000000
$ ... 284 like lines cut
CTRIA3          1       1       1      25      13
CTRIA3          2       1      25      26     103
CTRIA3          3       1      25     103      13
CTRIA3          4       1      13     103      14
CTRIA3          5       1      26      27     104
CTRIA3          6       1      26     104     103
CTRIA3          7       1     103     104     105
CTRIA3          8       1     103     105      14
CTRIA3          9       1      14     105      15
CTRIA3         10       1      27       6      33
CTRIA3         11       1      27      33     104
CTRIA3         12       1     104      33      32
CTRIA3         13       1     104      32     105
CTRIA3         14       1     105      32      31
CTRIA3         15       1     105      31      15
CTRIA3         16       1      15      31       2
CTRIA3         17       1       1      19      25
CTRIA3         18       1      19      20     106
CTRIA3         19       1      19     106      25
CTRIA3         20       1      25     106      26
$ ... 300 like lines cut
MAT1     1      2.1+5           0.3
PSHELL   1       1      1.
ENDDATA
